 CRYSTAL
 PRIMVEC
    8.694064000    0.000000000    0.000000000
    0.000000000    8.694064000    0.000000000
    0.000000000    0.000000000   12.599351000
 PRIMCOORD
          30           1
Ge        0.000000000    4.347040000    8.702410000
P         0.000000000    4.347040000    2.402710000
Ge        4.347040000    0.000000000   10.196700000
P         4.347040000    0.000000000    3.896990000
P         0.000000000    0.000000000    6.299700000
P         4.347040000    4.347040000    0.000000000
S         0.000000000    1.602320000    5.169540000
S         0.000000000    7.091750000    5.169540000
S         2.744720000    4.347040000   11.469200000
S         5.949350000    4.347040000   11.469200000
S         4.347040000    5.949350000    1.130170000
S         4.347040000    2.744720000    1.130170000
S         1.602320000    0.000000000    7.429870000
S         7.091750000    0.000000000    7.429870000
S         0.000000000    2.600400000    1.196950000
S         0.000000000    6.093670000    1.196950000
S         1.746640000    4.347040000    7.496640000
S         6.947430000    4.347040000    7.496640000
S         4.347040000    6.947430000    5.102760000
S         4.347040000    1.746640000    5.102760000
S         2.600400000    0.000000000   11.402500000
S         6.093670000    0.000000000   11.402500000
S         0.000000000    6.077150000    9.971170000
S         0.000000000    2.616910000    9.971170000
S         6.963950000    4.347040000    3.671470000
S         1.730120000    4.347040000    3.671470000
S         4.347040000    1.730120000    8.927940000
S         4.347040000    6.963950000    8.927940000
S         6.077150000    0.000000000    2.628240000
S         2.616910000    0.000000000    2.628240000
